
#=================================================================== 
# CRYSTAL DATA 
#------------------------------------------------------------------- 
data_glazer_tilt_0_0_0 

_chemical_name_common                  'CaTiO3' 
_cell_length_a                         8.000000 
_cell_length_b                         8.000000 
_cell_length_c                         8.000000 
_cell_angle_alpha                      90.000000 
_cell_angle_beta                       90.000000 
_cell_angle_gamma                      90.000000 
_cell_volume                           512.000000 
_space_group_name_H-M_alt              'P 1' 
_space_group_IT_number                 1 

loop_ 
_space_group_symop_operation_xyz 
   'x, y, z' 

loop_ 
   _atom_site_label 
   _atom_site_occupancy 
   _atom_site_fract_x 
   _atom_site_fract_y 
   _atom_site_fract_z 
   _atom_site_adp_type 
   _atom_site_B_iso_or_equiv 
   _atom_site_type_symbol 
   Ca1         1.0     0.250000     0.250000     0.250000    Biso  0.0005 Ca 
   Ca2         1.0     0.250000     0.250000     0.750000    Biso  0.0005 Ca 
   Ca3         1.0     0.250000     0.750000     0.250000    Biso  0.0005 Ca 
   Ca4         1.0     0.250000     0.750000     0.750000    Biso  0.0005 Ca 
   Ca5         1.0     0.750000     0.250000     0.250000    Biso  0.0005 Ca 
   Ca6         1.0     0.750000     0.250000     0.750000    Biso  0.0005 Ca 
   Ca7         1.0     0.750000     0.750000     0.250000    Biso  0.0005 Ca 
   Ca8         1.0     0.750000     0.750000     0.750000    Biso  0.0005 Ca 
   Ti1         1.0     0.000000     0.000000     0.000000    Biso  0.001 Ti 
   Ti2         1.0     0.000000     0.000000     0.500000    Biso  0.001 Ti 
   Ti3         1.0     0.000000     0.500000     0.000000    Biso  0.001 Ti 
   Ti4         1.0     0.000000     0.500000     0.500000    Biso  0.001 Ti 
   Ti5         1.0     0.500000     0.000000     0.000000    Biso  0.001 Ti 
   Ti6         1.0     0.500000     0.000000     0.500000    Biso  0.001 Ti 
   Ti7         1.0     0.500000     0.500000     0.000000    Biso  0.001 Ti 
   Ti8         1.0     0.500000     0.500000     0.500000    Biso  0.001 Ti 
   O1_1         1.0     0.250000     0.000000     0.000000    Biso  0.002 O 
   O1_2         1.0     0.250000     0.000000     0.500000    Biso  0.002 O 
   O1_3         1.0     0.250000     0.500000     0.000000    Biso  0.002 O 
   O1_4         1.0     0.250000     0.500000     0.500000    Biso  0.002 O 
   O1_5         1.0     0.750000     0.000000     0.000000    Biso  0.002 O 
   O1_6         1.0     0.750000     0.000000     0.500000    Biso  0.002 O 
   O1_7         1.0     0.750000     0.500000     0.000000    Biso  0.002 O 
   O1_8         1.0     0.750000     0.500000     0.500000    Biso  0.002 O 
   O2_1         1.0     0.000000     0.250000     0.000000    Biso  0.002 O 
   O2_2         1.0     0.000000     0.250000     0.500000    Biso  0.002 O 
   O2_3         1.0     0.000000     0.750000     0.000000    Biso  0.002 O 
   O2_4         1.0     0.000000     0.750000     0.500000    Biso  0.002 O 
   O2_5         1.0     0.500000     0.250000     0.000000    Biso  0.002 O 
   O2_6         1.0     0.500000     0.250000     0.500000    Biso  0.002 O 
   O2_7         1.0     0.500000     0.750000     0.000000    Biso  0.002 O 
   O2_8         1.0     0.500000     0.750000     0.500000    Biso  0.002 O 
   O3_1         1.0     0.000000     0.000000     0.250000    Biso  0.002 O 
   O3_2         1.0     0.000000     0.000000     0.750000    Biso  0.002 O 
   O3_3         1.0     0.000000     0.500000     0.250000    Biso  0.002 O 
   O3_4         1.0     0.000000     0.500000     0.750000    Biso  0.002 O 
   O3_5         1.0     0.500000     0.000000     0.250000    Biso  0.002 O 
   O3_6         1.0     0.500000     0.000000     0.750000    Biso  0.002 O 
   O3_7         1.0     0.500000     0.500000     0.250000    Biso  0.002 O 
   O3_8         1.0     0.500000     0.500000     0.750000    Biso  0.002 O 
