
#======================================================================
# CRYSTAL DATA
#----------------------------------------------------------------------
data_VESTA_phase_1

_chemical_name_common                  'NdNiO3'
_cell_length_a                         8.000000
_cell_length_b                         8.000000
_cell_length_c                         8.000000
_cell_angle_alpha                      90.000000
_cell_angle_beta                       90.000000
_cell_angle_gamma                      90.000000
_cell_volume                           512.000000
_space_group_name_H-M_alt              'P 1'
_space_group_IT_number                 1

loop_
_space_group_symop_operation_xyz
   'x, y, z'

loop_
   _atom_site_label
   _atom_site_occupancy
   _atom_site_fract_x
   _atom_site_fract_y
   _atom_site_fract_z
   _atom_site_adp_type
   _atom_site_B_iso_or_equiv
   _atom_site_type_symbol
   Nd1        1.0     0.250000     0.250000     0.250000    Biso  0.000500 Nd
   Nd2        1.0     0.250000     0.250000     0.750000    Biso  0.000500 Nd
   Nd3        1.0     0.250000     0.750000     0.250000    Biso  0.000500 Nd
   Nd4        1.0     0.250000     0.750000     0.750000    Biso  0.000500 Nd
   Nd5        1.0     0.750000     0.250000     0.250000    Biso  0.000500 Nd
   Nd6        1.0     0.750000     0.250000     0.750000    Biso  0.000500 Nd
   Nd7        1.0     0.750000     0.750000     0.250000    Biso  0.000500 Nd
   Nd8        1.0     0.750000     0.750000     0.750000    Biso  0.000500 Nd
   Ni1        1.0     0.000000     0.000000     0.000000    Biso  0.001000 Ni
   Ni2        1.0     0.000000     0.000000     0.500000    Biso  0.001000 Ni
   Ni3        1.0     0.000000     0.500000     0.000000    Biso  0.001000 Ni
   Ni4        1.0     0.000000     0.500000     0.500000    Biso  0.001000 Ni
   Ni5        1.0     0.500000     0.000000     0.000000    Biso  0.001000 Ni
   Ni6        1.0     0.500000     0.000000     0.500000    Biso  0.001000 Ni
   Ni7        1.0     0.500000     0.500000     0.000000    Biso  0.001000 Ni
   Ni8        1.0     0.500000     0.500000     0.500000    Biso  0.001000 Ni
   O1_1       1.0     0.250000     0.000000     0.000000    Biso  0.002000 O
   O1_2       1.0     0.250000     0.000000     0.500000    Biso  0.002000 O
   O1_3       1.0     0.250000     0.500000     0.000000    Biso  0.002000 O
   O1_4       1.0     0.250000     0.500000     0.500000    Biso  0.002000 O
   O1_5       1.0     0.750000     0.000000     0.000000    Biso  0.002000 O
   O1_6       1.0     0.750000     0.000000     0.500000    Biso  0.002000 O
   O1_7       1.0     0.750000     0.500000     0.000000    Biso  0.002000 O
   O1_8       1.0     0.750000     0.500000     0.500000    Biso  0.002000 O
   O2_1       1.0     0.000000     0.250000     0.000000    Biso  0.002000 O
   O2_2       1.0     0.000000     0.250000     0.500000    Biso  0.002000 O
   O2_3       1.0     0.000000     0.750000     0.000000    Biso  0.002000 O
   O2_4       1.0     0.000000     0.750000     0.500000    Biso  0.002000 O
   O2_5       1.0     0.500000     0.250000     0.000000    Biso  0.002000 O
   O2_6       1.0     0.500000     0.250000     0.500000    Biso  0.002000 O
   O2_7       1.0     0.500000     0.750000     0.000000    Biso  0.002000 O
   O2_8       1.0     0.500000     0.750000     0.500000    Biso  0.002000 O
   O3_1       1.0     0.000000     0.000000     0.250000    Biso  0.002000 O
   O3_2       1.0     0.000000     0.000000     0.750000    Biso  0.002000 O
   O3_3       1.0     0.000000     0.500000     0.250000    Biso  0.002000 O
   O3_4       1.0     0.000000     0.500000     0.750000    Biso  0.002000 O
   O3_5       1.0     0.500000     0.000000     0.250000    Biso  0.002000 O
   O3_6       1.0     0.500000     0.000000     0.750000    Biso  0.002000 O
   O3_7       1.0     0.500000     0.500000     0.250000    Biso  0.002000 O
   O3_8       1.0     0.500000     0.500000     0.750000    Biso  0.002000 O
